1
9
.tran 10u 10m
2
2
R3
I
1
Net-(C1-Pad1)
V
